tests/data/RTS-96-5.raw
0,   100.00, 33, 0, 1, 60.00     / PSS(R)E-33.12   WED, SEP 04 2019  11:37
 IEEE RELIABILITY TEST SYSTEM - RTS-96
 3 AREAS, 73 BUSES
   101,'ABEL        ', 138.0000,2,   1,  11,   1,1.03500, -53.5326,1.10000,0.90000,1.10000,0.90000
   102,'ADAMS       ', 138.0000,2,   1,  12,   1,1.03500, -53.6270,1.10000,0.90000,1.10000,0.90000
   103,'ADLER       ', 138.0000,1,   1,  11,   1,0.96791, -51.9386,1.10000,0.90000,1.10000,0.90000
   104,'AGRICOLA    ', 138.0000,1,   1,  11,   1,0.98916, -56.2636,1.10000,0.90000,1.10000,0.90000
   105,'ALKEN       ', 138.0000,1,   1,  11,   1,1.01524, -56.5016,1.10000,0.90000,1.10000,0.90000
   106,'ALBER       ', 138.0000,1,   1,  12,   1,1.02722, -59.3062,1.10000,0.90000,1.10000,0.90000
   107,'ALDER       ', 138.0000,2,   1,  12,   1,1.02500, -54.4838,1.10000,0.90000,1.10000,0.90000
   108,'ALGER       ', 138.0000,1,   1,  12,   1,0.98823, -58.0780,1.10000,0.90000,1.10000,0.90000
   109,'ALL         ', 138.0000,1,   1,  13,   1,0.98679, -54.2122,1.10000,0.90000,1.10000,0.90000
   110,'ALLEN       ', 138.0000,1,   1,  13,   1,1.02283, -56.2769,1.10000,0.90000,1.10000,0.90000
   111,'ANNA        ', 230.0000,1,   1,  13,   1,0.97918, -48.9541,1.10000,0.90000,1.10000,0.90000
   112,'ARCHER      ', 230.0000,1,   1,  13,   1,0.98146, -48.3329,1.10000,0.90000,1.10000,0.90000
   113,'ARNE        ', 230.0000,2,   1,  14,   1,0.99250, -45.0426,1.10000,0.90000,1.10000,0.90000
   114,'ARNOLD      ', 230.0000,2,   1,  16,   1,0.98000, -46.0684,1.10000,0.90000,1.10000,0.90000
   115,'ARTHUR      ', 230.0000,2,   1,  16,   1,0.98868, -34.1148,1.10000,0.90000,1.10000,0.90000
   116,'ASSER       ', 230.0000,2,   1,  16,   1,0.99540, -35.2436,1.10000,0.90000,1.10000,0.90000
   117,'ASTON       ', 230.0000,1,   1,  17,   1,1.02113, -29.1271,1.10000,0.90000,1.10000,0.90000
   118,'ASTOR       ', 230.0000,2,   1,  17,   1,1.03498, -26.6086,1.10000,0.90000,1.10000,0.90000
   119,'ATTAR       ', 230.0000,1,   1,  15,   1,0.98082, -39.8438,1.10000,0.90000,1.10000,0.90000
   120,'ATTLIA      ', 230.0000,1,   1,  15,   1,0.98933, -40.3966,1.10000,0.90000,1.10000,0.90000
   121,'ATTLEE      ', 230.0000,2,   1,  17,   1,1.02969, -24.6339,1.10000,0.90000,1.10000,0.90000
   122,'AUBREY      ', 230.0000,2,   1,  17,   1,1.05000, -24.3416,1.10000,0.90000,1.10000,0.90000
   123,'AUSTEN      ', 230.0000,2,   1,  15,   1,1.00217, -39.1407,1.10000,0.90000,1.10000,0.90000
   124,'AVERY       ', 230.0000,1,   1,  16,   1,0.95806, -40.7288,1.10000,0.90000,1.10000,0.90000
   201,'BACH        ', 138.0000,2,   2,  21,   1,1.03500, -33.8999,1.10000,0.90000,1.10000,0.90000
   202,'BACON       ', 138.0000,2,   2,  22,   1,1.03500, -32.8298,1.10000,0.90000,1.10000,0.90000
   203,'BAFFIN      ', 138.0000,1,   2,  21,   1,0.93667, -47.4372,1.10000,0.90000,1.10000,0.90000
   204,'BALLEY      ', 138.0000,1,   2,  21,   1,0.98367, -38.5882,1.10000,0.90000,1.10000,0.90000
   205,'BAIN        ', 138.0000,1,   2,  21,   1,1.01172, -38.2223,1.10000,0.90000,1.10000,0.90000
   206,'BAJER       ', 138.0000,1,   2,  22,   1,1.03142, -41.6167,1.10000,0.90000,1.10000,0.90000
   207,'BAKER       ', 138.0000,2,   2,  22,   1,1.02500, -43.3461,1.10000,0.90000,1.10000,0.90000
   208,'BALCH       ', 138.0000,1,   2,  22,   1,0.98501, -44.9394,1.10000,0.90000,1.10000,0.90000
   209,'BALZAC      ', 138.0000,1,   2,  23,   1,0.97983, -39.1916,1.10000,0.90000,1.10000,0.90000
   210,'BANKS       ', 138.0000,1,   2,  23,   1,1.01752, -39.4082,1.10000,0.90000,1.10000,0.90000
   211,'BARDEEN     ', 230.0000,1,   2,  23,   1,0.98256, -32.9209,1.10000,0.90000,1.10000,0.90000
   212,'BARKIA      ', 230.0000,1,   2,  23,   1,0.97621, -28.1531,1.10000,0.90000,1.10000,0.90000
   213,'BARLOW      ', 230.0000,2,   2,  24,   1,1.01624, -25.2612,1.10000,0.90000,1.10000,0.90000
   214,'BARRY       ', 230.0000,2,   2,  26,   1,0.98000, -33.5282,1.10000,0.90000,1.10000,0.90000
   215,'BARTON      ', 230.0000,2,   2,  26,   1,0.98464, -31.0306,1.10000,0.90000,1.10000,0.90000
   216,'BASOV       ', 230.0000,2,   2,  26,   1,0.98909, -27.5876,1.10000,0.90000,1.10000,0.90000
   217,'BATES       ', 230.0000,1,   2,  27,   1,1.01770, -23.9310,1.10000,0.90000,1.10000,0.90000
   218,'BAYLE       ', 230.0000,2,   2,  27,   1,1.04270, -21.2228,1.10000,0.90000,1.10000,0.90000
   219,'BEDE        ', 230.0000,1,   2,  25,   1,0.98408, -21.2223,1.10000,0.90000,1.10000,0.90000
   220,'BEETHOVE    ', 230.0000,1,   2,  25,   1,1.00316, -13.6956,1.10000,0.90000,1.10000,0.90000
   221,'BEHRING     ', 230.0000,2,   2,  27,   1,1.05000, -18.4247,1.10000,0.90000,1.10000,0.90000
   222,'BELL        ', 230.0000,2,   2,  27,   1,1.05000,  -9.6622,1.10000,0.90000,1.10000,0.90000
   223,'BLOCH       ', 230.0000,2,   2,  25,   1,1.02353,  -9.2679,1.10000,0.90000,1.10000,0.90000
   224,'BORDET      ', 230.0000,1,   2,  26,   1,0.94639, -36.9649,1.10000,0.90000,1.10000,0.90000
   301,'CABELL      ', 138.0000,2,   3,  31,   1,1.03500,  -3.4359,1.10000,0.90000,1.10000,0.90000
   302,'CABOT       ', 138.0000,2,   3,  32,   1,1.03500,  -3.5819,1.10000,0.90000,1.10000,0.90000
   303,'CAESAR      ', 138.0000,1,   3,  31,   1,0.97971,  -0.1738,1.10000,0.90000,1.10000,0.90000
   304,'CAINE       ', 138.0000,1,   3,  31,   1,0.99584,  -6.4275,1.10000,0.90000,1.10000,0.90000
   305,'CALVIN      ', 138.0000,1,   3,  31,   1,1.01668,  -6.8069,1.10000,0.90000,1.10000,0.90000
   306,'CAMUS       ', 138.0000,1,   3,  32,   1,1.01004,  -9.6449,1.10000,0.90000,1.10000,0.90000
   307,'CAREW       ', 138.0000,2,   3,  32,   1,1.02500,  -4.7943,1.10000,0.90000,1.10000,0.90000
   308,'CARREL      ', 138.0000,1,   3,  32,   1,0.99152,  -8.4743,1.10000,0.90000,1.10000,0.90000
   309,'CARTER      ', 138.0000,1,   3,  33,   1,0.99868,  -4.6056,1.10000,0.90000,1.10000,0.90000
   310,'CARUSO      ', 138.0000,1,   3,  33,   1,1.02610,  -7.0071,1.10000,0.90000,1.10000,0.90000
   311,'CARY        ', 230.0000,1,   3,  33,   1,0.99069,   0.0921,1.10000,0.90000,1.10000,0.90000
   312,'CAXTON      ', 230.0000,1,   3,  33,   1,1.00652,   0.0303,1.10000,0.90000,1.10000,0.90000
   313,'CECLL       ', 230.0000,3,   3,  34,   1,1.02000,   2.3808,1.10000,0.90000,1.10000,0.90000
   314,'CHAIN       ', 230.0000,2,   3,  36,   1,0.98000,   3.9856,1.10000,0.90000,1.10000,0.90000
   315,'CHASE       ', 230.0000,2,   3,  36,   1,1.01717,  20.6837,1.10000,0.90000,1.10000,0.90000
   316,'CHIFA       ', 230.0000,2,   3,  36,   1,1.01700,  15.8324,1.10000,0.90000,1.10000,0.90000
   317,'CHUHSL      ', 230.0000,1,   3,  37,   1,1.03269,  18.2899,1.10000,0.90000,1.10000,0.90000
   318,'CLARK       ', 230.0000,2,   3,  37,   1,1.04109,  17.8603,1.10000,0.90000,1.10000,0.90000
   319,'CLAY        ', 230.0000,1,   3,  35,   1,1.02032,  10.8582,1.10000,0.90000,1.10000,0.90000
   320,'CLIVE       ', 230.0000,1,   3,  35,   1,1.03728,   8.5516,1.10000,0.90000,1.10000,0.90000
   321,'COBB        ', 230.0000,2,   3,  37,   1,1.05000,  21.7079,1.10000,0.90000,1.10000,0.90000
   322,'COLE        ', 230.0000,2,   3,  37,   1,1.05000,  31.2427,1.10000,0.90000,1.10000,0.90000
   323,'COMTE       ', 230.0000,2,   3,  35,   1,1.05000,   8.0426,1.10000,0.90000,1.10000,0.90000
   324,'CURIE       ', 230.0000,1,   3,  36,   1,0.97428,  13.0528,1.10000,0.90000,1.10000,0.90000
   325,'CURTISS     ', 230.0000,1,   3,  35,   1,1.04250,   4.4571,1.10000,0.90000,1.10000,0.90000
0 / END OF BUS DATA, BEGIN LOAD DATA
   101,'1 ',1,   1,  11,   108.000,    22.000,     0.000,     0.000,     0.000,     0.000,   1,1,0
   102,'1 ',1,   1,  12,    97.000,    20.000,     0.000,     0.000,     0.000,     0.000,   1,1,0
   103,'1 ',1,   1,  11,   180.000,    37.000,     0.000,     0.000,     0.000,     0.000,   1,1,0
   104,'1 ',1,   1,  11,    74.000,    15.800,     0.000,     0.000,     0.000,     0.000,   1,1,0
   105,'1 ',1,   1,  11,    71.800,    14.500,     0.000,     0.000,     0.000,     0.000,   1,1,0
   106,'1 ',1,   1,  12,   136.000,    28.000,     0.000,     0.000,     0.000,     0.000,   1,1,0
   107,'1 ',1,   1,  12,   125.300,    25.000,     0.000,     0.000,     0.000,     0.000,   1,1,0
   108,'1 ',1,   1,  12,   171.000,    35.000,     0.000,     0.000,     0.000,     0.000,   1,1,0
   109,'1 ',1,   1,  13,   175.000,    36.000,     0.000,     0.000,     0.000,     0.000,   1,1,0
   110,'1 ',1,   1,  13,   195.000,    40.000,     0.000,     0.000,     0.000,     0.000,   1,1,0
   113,'1 ',1,   1,  14,   300.000,    61.000,     0.000,     0.000,     0.000,     0.000,   1,1,0
   114,'1 ',1,   1,  16,   194.000,    39.000,     0.000,     0.000,     0.000,     0.000,   1,1,0
   115,'1 ',1,   1,  16,   400.000,    69.000,     0.000,     0.000,     0.000,     0.000,   1,1,0
   116,'1 ',1,   1,  16,    25.000,     5.000,     0.000,     0.000,     0.000,     0.000,   1,1,0
   118,'1 ',1,   1,  17,   333.000,    68.000,     0.000,     0.000,     0.000,     0.000,   1,1,0
   119,'1 ',1,   1,  15,   300.000,    61.000,     0.000,     0.000,     0.000,     0.000,   1,1,0
   120,'1 ',1,   1,  15,   250.000,    50.000,     0.000,     0.000,     0.000,     0.000,   1,1,0
   201,'1 ',1,   2,  21,   108.000,    22.000,     0.000,     0.000,     0.000,     0.000,   1,1,0
   202,'1 ',1,   2,  22,    97.000,    20.000,     0.000,     0.000,     0.000,     0.000,   1,1,0
   203,'1 ',1,   2,  21,   350.000,    71.000,     0.000,     0.000,     0.000,     0.000,   1,1,0
   204,'1 ',1,   2,  21,    74.000,    15.800,     0.000,     0.000,     0.000,     0.000,   1,1,0
   205,'1 ',1,   2,  21,    71.800,    14.500,     0.000,     0.000,     0.000,     0.000,   1,1,0
   206,'1 ',1,   2,  22,   136.000,    28.000,     0.000,     0.000,     0.000,     0.000,   1,1,0
   207,'1 ',1,   2,  22,   125.300,    25.000,     0.000,     0.000,     0.000,     0.000,   1,1,0
   208,'1 ',1,   2,  22,   171.000,    35.000,     0.000,     0.000,     0.000,     0.000,   1,1,0
   209,'1 ',1,   2,  23,   175.000,    36.000,     0.000,     0.000,     0.000,     0.000,   1,1,0
   210,'1 ',1,   2,  23,   260.000,    53.000,     0.000,     0.000,     0.000,     0.000,   1,1,0
   213,'1 ',1,   2,  24,   265.000,    54.000,     0.000,     0.000,     0.000,     0.000,   1,1,0
   214,'1 ',1,   2,  26,   194.000,    39.000,     0.000,     0.000,     0.000,     0.000,   1,1,0
   215,'1 ',1,   2,  26,   400.000,    80.000,     0.000,     0.000,     0.000,     0.000,   1,1,0
   216,'1 ',1,   2,  26,   250.000,    50.000,     0.000,     0.000,     0.000,     0.000,   1,1,0
   218,'1 ',1,   2,  27,   333.000,    68.000,     0.000,     0.000,     0.000,     0.000,   1,1,0
   219,'1 ',1,   2,  25,   181.000,    37.000,     0.000,     0.000,     0.000,     0.000,   1,1,0
   220,'1 ',1,   2,  25,    75.000,    15.000,     0.000,     0.000,     0.000,     0.000,   1,1,0
   301,'1 ',1,   3,  31,   108.000,    22.000,     0.000,     0.000,     0.000,     0.000,   1,1,0
   302,'1 ',1,   3,  32,    97.000,    20.000,     0.000,     0.000,     0.000,     0.000,   1,1,0
   303,'1 ',1,   3,  31,   180.000,    37.000,     0.000,     0.000,     0.000,     0.000,   1,1,0
   304,'1 ',1,   3,  31,    74.000,    15.800,     0.000,     0.000,     0.000,     0.000,   1,1,0
   305,'1 ',1,   3,  31,    71.800,    14.500,     0.000,     0.000,     0.000,     0.000,   1,1,0
   306,'1 ',1,   3,  32,   136.000,    28.000,     0.000,     0.000,     0.000,     0.000,   1,1,0
   307,'1 ',1,   3,  32,   125.300,    25.000,     0.000,     0.000,     0.000,     0.000,   1,1,0
   308,'1 ',1,   3,  32,   171.000,    35.000,     0.000,     0.000,     0.000,     0.000,   1,1,0
   309,'1 ',1,   3,  33,   175.000,    36.000,     0.000,     0.000,     0.000,     0.000,   1,1,0
   310,'1 ',1,   3,  33,   195.000,    40.000,     0.000,     0.000,     0.000,     0.000,   1,1,0
   313,'1 ',1,   3,  34,   265.000,    54.000,     0.000,     0.000,     0.000,     0.000,   1,1,0
   314,'1 ',1,   3,  36,   194.000,    39.000,     0.000,     0.000,     0.000,     0.000,   1,1,0
   315,'1 ',1,   3,  36,   317.000,    64.000,     0.000,     0.000,     0.000,     0.000,   1,1,0
   316,'1 ',1,   3,  36,   100.000,    20.000,     0.000,     0.000,     0.000,     0.000,   1,1,0
   318,'1 ',1,   3,  37,   333.000,    68.000,     0.000,     0.000,     0.000,     0.000,   1,1,0
   319,'1 ',1,   3,  35,   181.000,    37.000,     0.000,     0.000,     0.000,     0.000,   1,1,0
   320,'1 ',1,   3,  35,   128.000,    26.000,     0.000,     0.000,     0.000,     0.000,   1,1,0
0 / END OF LOAD DATA, BEGIN FIXED SHUNT DATA
0 / END OF FIXED SHUNT DATA, BEGIN GENERATOR DATA
   101,'1 ',    15.000,     2.739,    10.000,     0.000,1.03500,     0,    24.000, 0.00000E+0, 3.20000E-1, 0.00000E+0, 1.30000E-1,1.00000,1,  100.0,    20.000,    15.000,   1,1.0000
   101,'2 ',    15.000,     2.739,    10.000,     0.000,1.03500,     0,    24.000, 0.00000E+0, 3.20000E-1, 0.00000E+0, 1.30000E-1,1.00000,1,  100.0,    20.000,    15.000,   1,1.0000
   101,'3 ',    76.000,    13.877,    30.000,   -25.000,1.03500,     0,    89.000, 0.00000E+0, 3.00000E-1, 0.00000E+0, 1.30000E-1,1.00000,1,  100.0,    76.000,    15.000,   1,1.0000
   101,'4 ',    76.000,    13.877,    30.000,   -25.000,1.03500,     0,    89.000, 0.00000E+0, 3.00000E-1, 0.00000E+0, 1.30000E-1,1.00000,1,  100.0,    76.000,    15.000,   1,1.0000
   102,'1 ',    15.000,     1.085,    10.000,     0.000,1.03500,     0,    24.000, 0.00000E+0, 3.20000E-1, 0.00000E+0, 1.30000E-1,1.00000,1,  100.0,    20.000,    15.000,   1,1.0000
   102,'2 ',    15.000,     1.085,    10.000,     0.000,1.03500,     0,    24.000, 0.00000E+0, 3.20000E-1, 0.00000E+0, 1.30000E-1,1.00000,1,  100.0,    20.000,    15.000,   1,1.0000
   102,'3 ',    76.000,     5.499,    30.000,   -25.000,1.03500,     0,    89.000, 0.00000E+0, 3.00000E-1, 0.00000E+0, 1.30000E-1,1.00000,1,  100.0,    76.000,    15.000,   1,1.0000
   102,'4 ',    76.000,     5.499,    30.000,   -25.000,1.03500,     0,    89.000, 0.00000E+0, 3.00000E-1, 0.00000E+0, 1.30000E-1,1.00000,1,  100.0,    76.000,    15.000,   1,1.0000
   107,'1 ',    80.000,    57.019,    60.000,     0.000,1.02500,     0,   118.000, 0.00000E+0, 3.20000E-1, 0.00000E+0, 1.30000E-1,1.00000,1,  100.0,   100.000,    25.000,   1,1.0000
   107,'2 ',    25.000,    17.818,    60.000,     0.000,1.02500,     0,   118.000, 0.00000E+0, 3.20000E-1, 0.00000E+0, 1.30000E-1,1.00000,1,  100.0,   100.000,    25.000,   1,1.0000
   107,'3 ',    80.000,    57.019,    60.000,     0.000,1.02500,     0,   118.000, 0.00000E+0, 3.20000E-1, 0.00000E+0, 1.30000E-1,1.00000,1,  100.0,   100.000,    25.000,   1,1.0000
   113,'1 ',    69.000,    80.000,    80.000,     0.000,1.02000,     0,   232.000, 0.00000E+0, 3.20000E-1, 0.00000E+0, 1.30000E-1,1.00000,1,  100.0,   197.000,    69.000,   1,1.0000
   113,'2 ',    69.000,    80.000,    80.000,     0.000,1.02000,     0,   232.000, 0.00000E+0, 3.20000E-1, 0.00000E+0, 1.30000E-1,1.00000,0,  100.0,   197.000,    69.000,   1,1.0000
   113,'3 ',    69.000,    80.000,    80.000,     0.000,1.02000,     0,   232.000, 0.00000E+0, 3.20000E-1, 0.00000E+0, 1.30000E-1,1.00000,1,  100.0,   197.000,    69.000,   1,1.0000
   114,'1 ',     0.000,    52.018,   200.000,   -50.000,0.98000,     0,   100.000, 0.00000E+0, 1.00000E+0, 0.00000E+0, 1.30000E-1,1.00000,1,  100.0,     0.000,     0.000,   1,1.0000
   115,'1 ',    12.000,     6.000,     6.000,     0.000,1.01400,     0,    14.000, 0.00000E+0, 3.20000E-1, 0.00000E+0, 1.30000E-1,1.00000,1,  100.0,    12.000,     2.000,   1,1.0000
   115,'2 ',    12.000,     6.000,     6.000,     0.000,1.01400,     0,    14.000, 0.00000E+0, 3.20000E-1, 0.00000E+0, 1.30000E-1,1.00000,1,  100.0,    12.000,     2.000,   1,1.0000
   115,'3 ',    12.000,     6.000,     6.000,     0.000,1.01400,     0,    14.000, 0.00000E+0, 3.20000E-1, 0.00000E+0, 1.30000E-1,1.00000,1,  100.0,    12.000,     2.000,   1,1.0000
   115,'4 ',    12.000,     5.813,     6.000,     0.000,1.01400,     0,    14.000, 0.00000E+0, 3.20000E-1, 0.00000E+0, 1.30000E-1,1.00000,0,  100.0,    12.000,     2.000,   1,1.0000
   115,'5 ',    12.000,     6.000,     6.000,     0.000,1.01400,     0,    14.000, 0.00000E+0, 3.20000E-1, 0.00000E+0, 1.30000E-1,1.00000,0,  100.0,    12.000,     2.000,   1,1.0000
   115,'6 ',   155.000,    80.000,    80.000,   -50.000,1.01400,     0,   182.000, 0.00000E+0, 3.00000E-1, 0.00000E+0, 1.30000E-1,1.00000,0,  100.0,   155.000,    54.000,   1,1.0000
   116,'1 ',   155.000,    80.000,    80.000,   -50.000,1.01700,     0,   182.000, 0.00000E+0, 3.00000E-1, 0.00000E+0, 1.30000E-1,1.00000,1,  100.0,   155.000,    54.000,   1,1.0000
   118,'1 ',   400.000,   200.000,   200.000,   -50.000,1.05000,     0,   471.000, 0.00000E+0, 4.00000E-1, 0.00000E+0, 1.50000E-1,1.00000,1,  100.0,   400.000,   100.000,   1,1.0000
   121,'1 ',   450.000,   200.000,   200.000,   -50.000,1.05000,     0,   471.000, 0.00000E+0, 4.00000E-1, 0.00000E+0, 1.50000E-1,1.00000,1,  100.0,   450.000,   100.000,   1,1.0000
   122,'1 ',     0.000,     0.000,    16.000,   -10.000,1.05000,     0,    53.000, 0.00000E+0, 2.80000E-1, 0.00000E+0, 1.00000E-1,1.00000,1,  100.0,    50.000,     0.000,   1,1.0000
   122,'2 ',     0.000,     0.000,    16.000,   -10.000,1.05000,     0,    53.000, 0.00000E+0, 2.80000E-1, 0.00000E+0, 1.00000E-1,1.00000,1,  100.0,    50.000,     0.000,   1,1.0000
   122,'3 ',     0.000,     0.000,    16.000,   -10.000,1.05000,     0,    53.000, 0.00000E+0, 2.80000E-1, 0.00000E+0, 1.00000E-1,1.00000,1,  100.0,    50.000,     0.000,   1,1.0000
   122,'4 ',    50.000,    15.236,    16.000,   -10.000,1.05000,     0,    53.000, 0.00000E+0, 2.80000E-1, 0.00000E+0, 1.00000E-1,1.00000,1,  100.0,    50.000,     0.000,   1,1.0000
   122,'5 ',     0.000,     0.000,    16.000,   -10.000,1.05000,     0,    53.000, 0.00000E+0, 2.80000E-1, 0.00000E+0, 1.00000E-1,1.00000,1,  100.0,    50.000,     0.000,   1,1.0000
   122,'6 ',    50.000,    15.236,    16.000,   -10.000,1.05000,     0,    53.000, 0.00000E+0, 2.80000E-1, 0.00000E+0, 1.00000E-1,1.00000,1,  100.0,    50.000,     0.000,   1,1.0000
   123,'1 ',    54.000,    80.000,    80.000,   -50.000,1.05000,     0,   182.000, 0.00000E+0, 3.00000E-1, 0.00000E+0, 1.30000E-1,1.00000,0,  100.0,   155.000,    54.000,   1,1.0000
   123,'2 ',    54.000,    80.000,    80.000,   -50.000,1.05000,     0,   182.000, 0.00000E+0, 3.00000E-1, 0.00000E+0, 1.30000E-1,1.00000,0,  100.0,   155.000,    54.000,   1,1.0000
   123,'3 ',   140.000,   150.000,   150.000,   -25.000,1.05000,     0,   412.000, 0.00000E+0, 3.00000E-1, 0.00000E+0, 1.30000E-1,1.00000,1,  100.0,   350.000,   140.000,   1,1.0000
   201,'1 ',    15.000,     5.091,    10.000,     0.000,1.03500,     0,    24.000, 0.00000E+0, 3.20000E-1, 0.00000E+0, 1.30000E-1,1.00000,1,  100.0,    20.000,    15.000,   1,1.0000
   201,'2 ',    15.000,     5.091,    10.000,     0.000,1.03500,     0,    24.000, 0.00000E+0, 3.20000E-1, 0.00000E+0, 1.30000E-1,1.00000,1,  100.0,    20.000,    15.000,   1,1.0000
   201,'3 ',    76.000,    25.793,    30.000,   -25.000,1.03500,     0,    89.000, 0.00000E+0, 3.00000E-1, 0.00000E+0, 1.30000E-1,1.00000,1,  100.0,    76.000,    15.000,   1,1.0000
   201,'4 ',    76.000,    25.793,    30.000,   -25.000,1.03500,     0,    89.000, 0.00000E+0, 3.00000E-1, 0.00000E+0, 1.30000E-1,1.00000,1,  100.0,    76.000,    15.000,   1,1.0000
   202,'1 ',    75.000,     0.000,    10.000,     0.000,1.03500,     0,    84.000, 0.00000E+0, 3.20000E-1, 0.00000E+0, 1.30000E-1,1.00000,1,  100.0,    80.000,    15.000,   1,1.0000
   202,'2 ',    75.000,     0.000,    10.000,     0.000,1.03500,     0,    84.000, 0.00000E+0, 3.20000E-1, 0.00000E+0, 1.30000E-1,1.00000,1,  100.0,    80.000,    15.000,   1,1.0000
   202,'3 ',   176.000,   -18.640,    30.000,   -25.000,1.03500,     0,   189.000, 0.00000E+0, 3.00000E-1, 0.00000E+0, 1.30000E-1,1.00000,1,  100.0,   176.000,    15.000,   1,1.0000
   202,'4 ',    76.000,    -8.049,    30.000,   -25.000,1.03500,     0,    89.000, 0.00000E+0, 3.00000E-1, 0.00000E+0, 1.30000E-1,1.00000,1,  100.0,    76.000,    15.000,   1,1.0000
   207,'1 ',    80.000,    32.985,    60.000,     0.000,1.02500,     0,   118.000, 0.00000E+0, 3.20000E-1, 0.00000E+0, 1.30000E-1,1.00000,1,  100.0,   100.000,    25.000,   1,1.0000
   207,'2 ',    80.000,    32.985,    60.000,     0.000,1.02500,     0,   118.000, 0.00000E+0, 3.20000E-1, 0.00000E+0, 1.30000E-1,1.00000,1,  100.0,   100.000,    25.000,   1,1.0000
   207,'3 ',    25.000,    10.308,    60.000,     0.000,1.02500,     0,   118.000, 0.00000E+0, 3.20000E-1, 0.00000E+0, 1.30000E-1,1.00000,1,  100.0,   100.000,    25.000,   1,1.0000
   213,'1 ',    73.964,    80.000,    80.000,     0.000,1.02000,     0,   232.000, 0.00000E+0, 3.20000E-1, 0.00000E+0, 1.30000E-1,1.00000,1,  100.0,   197.000,    69.000,   1,1.0000
   213,'2 ',    72.000,    80.000,    80.000,     0.000,1.02000,     0,   232.000, 0.00000E+0, 3.20000E-1, 0.00000E+0, 1.30000E-1,1.00000,1,  100.0,   197.000,    69.000,   1,1.0000
   213,'3 ',   197.000,    80.000,    80.000,     0.000,1.02000,     0,   232.000, 0.00000E+0, 3.20000E-1, 0.00000E+0, 1.30000E-1,1.00000,1,  100.0,   197.000,    69.000,   1,1.0000
   214,'1 ',     0.000,    36.006,   200.000,   -50.000,0.98000,     0,   100.000, 0.00000E+0, 1.00000E+0, 0.00000E+0, 1.30000E-1,1.00000,1,  100.0,     0.000,     0.000,   1,1.0000
   215,'1 ',    12.000,     6.000,     6.000,     0.000,1.01400,     0,    14.000, 0.00000E+0, 3.20000E-1, 0.00000E+0, 1.30000E-1,1.00000,1,  100.0,    12.000,     2.000,   1,1.0000
   215,'2 ',    12.000,     6.000,     6.000,     0.000,1.01400,     0,    14.000, 0.00000E+0, 3.20000E-1, 0.00000E+0, 1.30000E-1,1.00000,1,  100.0,    12.000,     2.000,   1,1.0000
   215,'3 ',    12.000,     6.000,     6.000,     0.000,1.01400,     0,    14.000, 0.00000E+0, 3.20000E-1, 0.00000E+0, 1.30000E-1,1.00000,0,  100.0,    12.000,     2.000,   1,1.0000
   215,'4 ',    12.000,     6.000,     6.000,     0.000,1.01400,     0,    14.000, 0.00000E+0, 3.20000E-1, 0.00000E+0, 1.30000E-1,1.00000,1,  100.0,    12.000,     2.000,   1,1.0000
   215,'5 ',    12.000,     6.000,     6.000,     0.000,1.01400,     0,    14.000, 0.00000E+0, 3.20000E-1, 0.00000E+0, 1.30000E-1,1.00000,1,  100.0,    12.000,     2.000,   1,1.0000
   215,'6 ',    54.000,    80.000,    80.000,   -50.000,1.01400,     0,   182.000, 0.00000E+0, 3.00000E-1, 0.00000E+0, 1.30000E-1,1.00000,1,  100.0,   155.000,    54.000,   1,1.0000
   216,'1 ',    54.000,    80.000,    80.000,   -50.000,1.01700,     0,   182.000, 0.00000E+0, 3.00000E-1, 0.00000E+0, 1.30000E-1,1.00000,1,  100.0,   155.000,    54.000,   1,1.0000
   218,'1 ',   300.000,   200.000,   200.000,   -50.000,1.05000,     0,   471.000, 0.00000E+0, 4.00000E-1, 0.00000E+0, 1.50000E-1,1.00000,1,  100.0,   400.000,   100.000,   1,1.0000
   221,'1 ',   650.000,   184.951,   200.000,   -50.000,1.05000,     0,   671.000, 0.00000E+0, 4.00000E-1, 0.00000E+0, 1.50000E-1,1.00000,1,  100.0,   650.000,   100.000,   1,1.0000
   222,'1 ',    50.000,    -0.382,    16.000,   -10.000,1.05000,     0,    53.000, 0.00000E+0, 2.80000E-1, 0.00000E+0, 1.00000E-1,1.00000,1,  100.0,    50.000,     0.000,   1,1.0000
   222,'2 ',    50.000,    -0.382,    16.000,   -10.000,1.05000,     0,    53.000, 0.00000E+0, 2.80000E-1, 0.00000E+0, 1.00000E-1,1.00000,1,  100.0,    50.000,     0.000,   1,1.0000
   222,'3 ',    50.000,    -0.382,    16.000,   -10.000,1.05000,     0,    53.000, 0.00000E+0, 2.80000E-1, 0.00000E+0, 1.00000E-1,1.00000,1,  100.0,    50.000,     0.000,   1,1.0000
   222,'4 ',    50.000,    -0.382,    16.000,   -10.000,1.05000,     0,    53.000, 0.00000E+0, 2.80000E-1, 0.00000E+0, 1.00000E-1,1.00000,1,  100.0,    50.000,     0.000,   1,1.0000
   222,'5 ',   150.000,    -1.146,    16.000,   -10.000,1.05000,     0,   153.000, 0.00000E+0, 2.80000E-1, 0.00000E+0, 1.00000E-1,1.00000,1,  100.0,   150.000,     0.000,   1,1.0000
   222,'6 ',   150.000,    -1.146,    16.000,   -10.000,1.05000,     0,   153.000, 0.00000E+0, 2.80000E-1, 0.00000E+0, 1.00000E-1,1.00000,1,  100.0,   150.000,     0.000,   1,1.0000
   223,'1 ',   355.000,    80.000,    80.000,   -50.000,1.05000,     0,   382.000, 0.00000E+0, 3.00000E-1, 0.00000E+0, 1.30000E-1,1.00000,1,  100.0,   355.000,    54.000,   1,1.0000
   223,'2 ',   155.000,    80.000,    80.000,   -50.000,1.05000,     0,   182.000, 0.00000E+0, 3.00000E-1, 0.00000E+0, 1.30000E-1,1.00000,1,  100.0,   155.000,    54.000,   1,1.0000
   223,'3 ',   450.000,   150.000,   150.000,   -25.000,1.05000,     0,   472.000, 0.00000E+0, 3.00000E-1, 0.00000E+0, 1.30000E-1,1.00000,1,  100.0,   450.000,   140.000,   1,1.0000
   301,'1 ',    15.000,     2.234,    10.000,     0.000,1.03500,     0,    24.000, 0.00000E+0, 3.20000E-1, 0.00000E+0, 1.30000E-1,1.00000,1,  100.0,    20.000,    15.000,   1,1.0000
   301,'2 ',    15.000,     2.234,    10.000,     0.000,1.03500,     0,    24.000, 0.00000E+0, 3.20000E-1, 0.00000E+0, 1.30000E-1,1.00000,1,  100.0,    20.000,    15.000,   1,1.0000
   301,'3 ',    76.000,    11.321,    30.000,   -25.000,1.03500,     0,    89.000, 0.00000E+0, 3.00000E-1, 0.00000E+0, 1.30000E-1,1.00000,1,  100.0,    76.000,    15.000,   1,1.0000
   301,'4 ',    76.000,    11.321,    30.000,   -25.000,1.03500,     0,    89.000, 0.00000E+0, 3.00000E-1, 0.00000E+0, 1.30000E-1,1.00000,1,  100.0,    76.000,    15.000,   1,1.0000
   302,'1 ',    15.000,     1.416,    10.000,     0.000,1.03500,     0,    24.000, 0.00000E+0, 3.20000E-1, 0.00000E+0, 1.30000E-1,1.00000,1,  100.0,    20.000,    15.000,   1,1.0000
   302,'2 ',    15.000,     1.416,    10.000,     0.000,1.03500,     0,    24.000, 0.00000E+0, 3.20000E-1, 0.00000E+0, 1.30000E-1,1.00000,1,  100.0,    20.000,    15.000,   1,1.0000
   302,'3 ',    76.000,     7.173,    30.000,   -25.000,1.03500,     0,    89.000, 0.00000E+0, 3.00000E-1, 0.00000E+0, 1.30000E-1,1.00000,1,  100.0,    76.000,    15.000,   1,1.0000
   302,'4 ',    76.000,     7.173,    30.000,   -25.000,1.03500,     0,    89.000, 0.00000E+0, 3.00000E-1, 0.00000E+0, 1.30000E-1,1.00000,1,  100.0,    76.000,    15.000,   1,1.0000
   307,'1 ',    80.000,    17.904,    60.000,     0.000,1.02500,     0,   118.000, 0.00000E+0, 3.20000E-1, 0.00000E+0, 1.30000E-1,1.00000,1,  100.0,   100.000,    25.000,   1,1.0000
   307,'2 ',    80.000,    17.904,    60.000,     0.000,1.02500,     0,   118.000, 0.00000E+0, 3.20000E-1, 0.00000E+0, 1.30000E-1,1.00000,1,  100.0,   100.000,    25.000,   1,1.0000
   307,'3 ',    80.000,    17.904,    60.000,     0.000,1.02500,     0,   118.000, 0.00000E+0, 3.20000E-1, 0.00000E+0, 1.30000E-1,1.00000,1,  100.0,   100.000,    25.000,   1,1.0000
   313,'1 ',   103.685,    29.682,    80.000,     0.000,1.02000,     0,   232.000, 0.00000E+0, 3.20000E-1, 0.00000E+0, 1.30000E-1,1.00000,1,  100.0,   197.000,    69.000,   1,1.0000
   313,'2 ',   103.685,    29.682,    80.000,     0.000,1.02000,     0,   232.000, 0.00000E+0, 3.20000E-1, 0.00000E+0, 1.30000E-1,1.00000,1,  100.0,   197.000,    69.000,   1,1.0000
   313,'3 ',   115.232,    32.988,    80.000,     0.000,1.02000,     0,   232.000, 0.00000E+0, 3.20000E-1, 0.00000E+0, 1.30000E-1,1.00000,1,  100.0,   197.000,    69.000,   1,1.0000
   314,'1 ',     0.000,    -3.036,   200.000,   -50.000,0.98000,     0,   100.000, 0.00000E+0, 1.00000E+0, 0.00000E+0, 1.30000E-1,1.00000,1,  100.0,     0.000,     0.000,   1,1.0000
   315,'1 ',    12.000,     0.000,     6.000,     0.000,1.01400,     0,    14.000, 0.00000E+0, 3.20000E-1, 0.00000E+0, 1.30000E-1,1.00000,1,  100.0,    12.000,     2.000,   1,1.0000
   315,'2 ',   200.000,     0.000,     6.000,     0.000,1.01400,     0,   220.000, 0.00000E+0, 3.20000E-1, 0.00000E+0, 1.30000E-1,1.00000,1,  100.0,   200.000,     2.000,   1,1.0000
   315,'3 ',    12.000,     0.000,     6.000,     0.000,1.01400,     0,    14.000, 0.00000E+0, 3.20000E-1, 0.00000E+0, 1.30000E-1,1.00000,1,  100.0,    12.000,     2.000,   1,1.0000
   315,'4 ',    12.000,     0.000,     6.000,     0.000,1.01400,     0,    14.000, 0.00000E+0, 3.20000E-1, 0.00000E+0, 1.30000E-1,1.00000,1,  100.0,    12.000,     2.000,   1,1.0000
   315,'5 ',   480.000,     0.000,     6.000,     0.000,1.01400,     0,   514.000, 0.00000E+0, 3.20000E-1, 0.00000E+0, 1.30000E-1,1.00000,1,  100.0,   500.000,     2.000,   1,1.0000
   315,'6 ',   280.000,   -50.000,    80.000,   -50.000,1.01400,     0,   312.000, 0.00000E+0, 3.00000E-1, 0.00000E+0, 1.30000E-1,1.00000,1,  100.0,   300.000,    54.000,   1,1.0000
   316,'1 ',   155.000,    73.496,    80.000,   -50.000,1.01700,     0,   182.000, 0.00000E+0, 3.00000E-1, 0.00000E+0, 1.30000E-1,1.00000,1,  100.0,   155.000,    54.000,   1,1.0000
   318,'1 ',   200.000,   200.000,   200.000,   -50.000,1.05000,     0,   271.000, 0.00000E+0, 4.00000E-1, 0.00000E+0, 1.50000E-1,1.00000,1,  100.0,   400.000,   100.000,   1,1.0000
   321,'1 ',   400.000,   187.086,   200.000,   -50.000,1.05000,     0,   471.000, 0.00000E+0, 4.00000E-1, 0.00000E+0, 1.50000E-1,1.00000,1,  100.0,   400.000,   100.000,   1,1.0000
   322,'1 ',   250.000,   -10.000,    16.000,   -10.000,1.05000,     0,   253.000, 0.00000E+0, 2.80000E-1, 0.00000E+0, 1.00000E-1,1.00000,1,  100.0,   250.000,     0.000,   1,1.0000
   322,'2 ',    50.000,    -2.086,    16.000,   -10.000,1.05000,     0,    53.000, 0.00000E+0, 2.80000E-1, 0.00000E+0, 1.00000E-1,1.00000,1,  100.0,    50.000,     0.000,   1,1.0000
   322,'3 ',    50.000,    -2.086,    16.000,   -10.000,1.05000,     0,    53.000, 0.00000E+0, 2.80000E-1, 0.00000E+0, 1.00000E-1,1.00000,1,  100.0,    50.000,     0.000,   1,1.0000
   322,'4 ',    50.000,    -2.086,    16.000,   -10.000,1.05000,     0,    53.000, 0.00000E+0, 2.80000E-1, 0.00000E+0, 1.00000E-1,1.00000,1,  100.0,    50.000,     0.000,   1,1.0000
   322,'5 ',    50.000,    -2.086,    16.000,   -10.000,1.05000,     0,    53.000, 0.00000E+0, 2.80000E-1, 0.00000E+0, 1.00000E-1,1.00000,1,  100.0,    50.000,     0.000,   1,1.0000
   322,'6 ',    50.000,    -2.086,    16.000,   -10.000,1.05000,     0,    53.000, 0.00000E+0, 2.80000E-1, 0.00000E+0, 1.00000E-1,1.00000,1,  100.0,    50.000,     0.000,   1,1.0000
   323,'1 ',   155.000,    58.222,    80.000,   -50.000,1.05000,     0,   182.000, 0.00000E+0, 3.00000E-1, 0.00000E+0, 1.30000E-1,1.00000,1,  100.0,   155.000,    54.000,   1,1.0000
   323,'2 ',   255.000,    80.000,    80.000,   -50.000,1.05000,     0,   282.000, 0.00000E+0, 3.00000E-1, 0.00000E+0, 1.30000E-1,1.00000,1,  100.0,   255.000,    54.000,   1,1.0000
   323,'3 ',   350.000,   131.469,   150.000,   -25.000,1.05000,     0,   412.000, 0.00000E+0, 3.00000E-1, 0.00000E+0, 1.30000E-1,1.00000,1,  100.0,   350.000,   140.000,   1,1.0000
0 / END OF GENERATOR DATA, BEGIN BRANCH DATA
   101,   102,'1A', 3.00000E-3, 1.40000E-2,   0.46100,  175.00,  193.00,  200.00,  0.00000,  0.00000,  0.00000,  0.00000,1,1,   0.00,   1,1.0000
   101,   103,'1 ', 5.50000E-2, 2.11000E-1,   0.05700,  175.00,  208.00,  220.00,  0.00000,  0.00000,  0.00000,  0.00000,1,1,   0.00,   1,1.0000
   101,   105,'1 ', 2.20000E-2, 8.50000E-2,   0.02300,  175.00,  208.00,  220.00,  0.00000,  0.00000,  0.00000,  0.00000,1,1,   0.00,   1,1.0000
   102,   104,'1 ', 3.30000E-2, 1.27000E-1,   0.03400,  175.00,  208.00,  220.00,  0.00000,  0.00000,  0.00000,  0.00000,1,1,   0.00,   1,1.0000
   102,   106,'1 ', 5.00000E-2, 1.92000E-1,   0.05200,  175.00,  208.00,  220.00,  0.00000,  0.00000,  0.00000,  0.00000,1,1,   0.00,   1,1.0000
   103,   109,'1 ', 3.18000E-2, 1.19000E-1,   0.03200,  500.00,  500.00,  500.00,  0.00000,  0.00000,  0.00000,  0.00000,1,1,   0.00,   1,1.0000
   104,   109,'1 ', 2.70000E-2, 1.04000E-1,   0.02800,  175.00,  208.00,  220.00,  0.00000,  0.00000,  0.00000,  0.00000,1,1,   0.00,   1,1.0000
   105,   110,'1 ', 2.30000E-2, 8.80000E-2,   0.02400,  175.00,  208.00,  220.00,  0.00000,  0.00000,  0.00000,  0.00000,1,1,   0.00,   1,1.0000
   106,   110,'1 ', 1.40000E-2, 6.10000E-2,   2.45900,  175.00,  208.00,  220.00,  0.00000,  0.00000,  0.00000,  0.00000,1,1,   0.00,   1,1.0000
   107,   108,'1 ', 1.60000E-2, 6.10000E-2,   0.01700, 1500.00, 1500.00, 1500.00,  0.00000,  0.00000,  0.00000,  0.00000,1,1,   0.00,   1,1.0000
   107,   203,'1 ', 4.20000E-2, 1.61000E-1,   0.04400,  500.00,  500.00,  500.00,  0.00000,  0.00000,  0.00000,  0.00000,1,1,   0.00,   1,1.0000
   108,   109,'1 ', 4.30000E-2, 1.65000E-1,   0.04500,  500.00,  500.00,  500.00,  0.00000,  0.00000,  0.00000,  0.00000,1,1,   0.00,   1,1.0000
   108,   110,'1 ', 4.30000E-2, 1.65000E-1,   0.04500,  500.00,  500.00,  500.00,  0.00000,  0.00000,  0.00000,  0.00000,1,1,   0.00,   1,1.0000
   111,   113,'1 ', 6.00000E-3, 4.80000E-2,   0.10000, 2000.00, 2000.00, 2000.00,  0.00000,  0.00000,  0.00000,  0.00000,1,1,   0.00,   1,1.0000
   111,   114,'1 ', 5.00000E-3, 4.20000E-2,   0.08800, 2000.00, 2000.00, 2000.00,  0.00000,  0.00000,  0.00000,  0.00000,1,1,   0.00,   1,1.0000
   112,   113,'1 ', 6.00000E-3, 4.80000E-2,   0.10000, 2000.00, 2000.00, 2000.00,  0.00000,  0.00000,  0.00000,  0.00000,1,1,   0.00,   1,1.0000
   112,   123,'1 ', 1.20000E-2, 9.70000E-2,   0.20300,  750.00,  750.00,  750.00,  0.00000,  0.00000,  0.00000,  0.00000,1,1,   0.00,   1,1.0000
   113,   123,'1 ', 1.10000E-2, 8.70000E-2,   0.18200, 2000.00, 2000.00, 2000.00,  0.00000,  0.00000,  0.00000,  0.00000,1,1,   0.00,   1,1.0000
   113,   215,'1 ', 1.00000E-2, 7.50000E-2,   0.15800, 2000.00, 2000.00, 2000.00,  0.00000,  0.00000,  0.00000,  0.00000,1,1,   0.00,   1,1.0000
   114,   116,'1 ', 5.00000E-3, 5.90000E-2,   0.08200,  750.00,  750.00,  750.00,  0.00000,  0.00000,  0.00000,  0.00000,1,1,   0.00,   1,1.0000
   115,   116,'1 ', 2.00000E-3, 1.70000E-2,   0.03600,  500.00,  600.00,  625.00,  0.00000,  0.00000,  0.00000,  0.00000,1,1,   0.00,   1,1.0000
   115,   121,'1 ', 6.00000E-3, 4.90000E-2,   0.10300,  500.00,  600.00,  625.00,  0.00000,  0.00000,  0.00000,  0.00000,1,1,   0.00,   1,1.0000
   115,   121,'2 ', 6.00000E-3, 4.90000E-2,   0.10300,  500.00,  600.00,  625.00,  0.00000,  0.00000,  0.00000,  0.00000,1,1,   0.00,   1,1.0000
   115,   124,'1 ', 7.00000E-3, 5.20000E-2,   0.10900,  500.00,  600.00,  625.00,  0.00000,  0.00000,  0.00000,  0.00000,1,1,   0.00,   1,1.0000
   116,   117,'1 ', 3.00000E-3, 2.60000E-2,   0.05500,  750.00,  750.00,  750.00,  0.00000,  0.00000,  0.00000,  0.00000,1,1,   0.00,   1,1.0000
   116,   119,'1 ', 3.00000E-3, 2.30000E-2,   0.04900,  450.00,  600.00,  625.00,  0.00000,  0.00000,  0.00000,  0.00000,1,1,   0.00,   1,1.0000
   117,   118,'1 ', 2.00000E-3, 1.40000E-2,   0.03000,  750.00,  750.00,  750.00,  0.00000,  0.00000,  0.00000,  0.00000,1,1,   0.00,   1,1.0000
   117,   122,'1 ', 1.40000E-2, 1.05000E-1,   0.22100,  500.00,  600.00,  625.00,  0.00000,  0.00000,  0.00000,  0.00000,1,1,   0.00,   1,1.0000
   118,   121,'1 ', 3.00000E-3, 2.60000E-2,   0.05500,  500.00,  600.00,  625.00,  0.00000,  0.00000,  0.00000,  0.00000,1,1,   0.00,   1,1.0000
   118,   121,'2 ', 3.00000E-3, 2.60000E-2,   0.05500,  500.00,  600.00,  625.00,  0.00000,  0.00000,  0.00000,  0.00000,1,1,   0.00,   1,1.0000
   119,   120,'1 ', 5.00000E-3, 4.00000E-2,   0.08300,  500.00,  600.00,  625.00,  0.00000,  0.00000,  0.00000,  0.00000,1,1,   0.00,   1,1.0000
   119,   120,'2 ', 5.00000E-3, 4.00000E-2,   0.08300,  500.00,  600.00,  625.00,  0.00000,  0.00000,  0.00000,  0.00000,1,1,   0.00,   1,1.0000
   120,   123,'1 ', 3.00000E-3, 2.20000E-2,   0.04600,  750.00,  750.00,  750.00,  0.00000,  0.00000,  0.00000,  0.00000,1,1,   0.00,   1,1.0000
   120,   123,'2 ', 3.00000E-3, 2.20000E-2,   0.04600,  500.00,  600.00,  625.00,  0.00000,  0.00000,  0.00000,  0.00000,1,1,   0.00,   1,1.0000
   121,   122,'1 ', 9.00000E-3, 6.80000E-2,   0.14200,  500.00,  600.00,  625.00,  0.00000,  0.00000,  0.00000,  0.00000,1,1,   0.00,   1,1.0000
   121,   325,'1 ', 1.20000E-2, 9.70000E-2,   0.20300, 1000.00, 1000.00, 1000.00,  0.00000,  0.00000,  0.00000,  0.00000,1,2,   0.00,   1,1.0000
   123,   217,'1 ', 1.00000E-2, 7.40000E-2,   0.15500,  750.00,  750.00,  750.00,  0.00000,  0.00000,  0.00000,  0.00000,1,1,   0.00,   1,1.0000
   201,   202,'1 ', 3.00000E-3, 1.40000E-2,   0.46100,  175.00,  193.00,  200.00,  0.00000,  0.00000,  0.00000,  0.00000,1,1,   0.00,   1,1.0000
   201,   203,'1 ', 5.50000E-2, 2.11000E-1,   0.05700,  175.00,  208.00,  220.00,  0.00000,  0.00000,  0.00000,  0.00000,1,1,   0.00,   1,1.0000
   201,   205,'1 ', 2.20000E-2, 8.50000E-2,   0.02300,  175.00,  208.00,  220.00,  0.00000,  0.00000,  0.00000,  0.00000,1,1,   0.00,   1,1.0000
   202,   204,'1 ', 3.30000E-2, 1.27000E-1,   0.03400,  175.00,  208.00,  220.00,  0.00000,  0.00000,  0.00000,  0.00000,1,1,   0.00,   1,1.0000
   202,   206,'1 ', 5.00000E-2, 1.92000E-1,   0.05200,  175.00,  208.00,  220.00,  0.00000,  0.00000,  0.00000,  0.00000,1,1,   0.00,   1,1.0000
   203,   209,'1 ', 3.18000E-2, 1.19000E-1,   0.03200,  500.00,  500.00,  500.00,  0.00000,  0.00000,  0.00000,  0.00000,1,1,   0.00,   1,1.0000
   204,   209,'1 ', 2.70000E-2, 1.04000E-1,   0.02800,  175.00,  208.00,  220.00,  0.00000,  0.00000,  0.00000,  0.00000,1,1,   0.00,   1,1.0000
   205,   210,'1 ', 2.30000E-2, 8.80000E-2,   0.02400,  175.00,  208.00,  220.00,  0.00000,  0.00000,  0.00000,  0.00000,1,1,   0.00,   1,1.0000
   206,   210,'1 ', 1.40000E-2, 6.10000E-2,   2.45900,  175.00,  193.00,  200.00,  0.00000,  0.00000,  0.00000,  0.00000,1,1,   0.00,   1,1.0000
   207,   208,'1 ', 1.60000E-2, 6.10000E-2,   0.01700,  175.00,  208.00,  220.00,  0.00000,  0.00000,  0.00000,  0.00000,1,1,   0.00,   1,1.0000
   208,   209,'1 ', 4.30000E-2, 1.65000E-1,   0.04500,  175.00,  208.00,  220.00,  0.00000,  0.00000,  0.00000,  0.00000,1,1,   0.00,   1,1.0000
   208,   210,'1 ', 4.30000E-2, 1.65000E-1,   0.04500,  175.00,  208.00,  220.00,  0.00000,  0.00000,  0.00000,  0.00000,1,1,   0.00,   1,1.0000
   211,   213,'1 ', 6.00000E-3, 4.80000E-2,   0.10000,  500.00,  600.00,  625.00,  0.00000,  0.00000,  0.00000,  0.00000,1,1,   0.00,   1,1.0000
   211,   214,'1 ', 5.00000E-3, 4.20000E-2,   0.08800,  500.00,  600.00,  625.00,  0.00000,  0.00000,  0.00000,  0.00000,1,1,   0.00,   1,1.0000
   212,   213,'1 ', 6.00000E-3, 4.80000E-2,   0.10000,  500.00,  600.00,  625.00,  0.00000,  0.00000,  0.00000,  0.00000,1,1,   0.00,   1,1.0000
   212,   223,'1 ', 1.20000E-2, 9.70000E-2,   0.20300,  500.00,  600.00,  625.00,  0.00000,  0.00000,  0.00000,  0.00000,1,1,   0.00,   1,1.0000
   213,   223,'1 ', 1.10000E-2, 8.70000E-2,   0.18200,  500.00,  600.00,  625.00,  0.00000,  0.00000,  0.00000,  0.00000,1,1,   0.00,   1,1.0000
   214,   216,'1 ', 5.00000E-3, 5.90000E-2,   0.08200,  500.00,  600.00,  625.00,  0.00000,  0.00000,  0.00000,  0.00000,1,1,   0.00,   1,1.0000
   215,   216,'1 ', 2.00000E-3, 1.70000E-2,   0.03600,  750.00,  750.00,  750.00,  0.00000,  0.00000,  0.00000,  0.00000,1,1,   0.00,   1,1.0000
   215,   221,'1 ', 6.00000E-3, 4.90000E-2,   0.10300,  450.00,  500.00,  625.00,  0.00000,  0.00000,  0.00000,  0.00000,1,1,   0.00,   1,1.0000
   215,   221,'2 ', 6.00000E-3, 4.90000E-2,   0.10300,  450.00,  500.00,  625.00,  0.00000,  0.00000,  0.00000,  0.00000,0,1,   0.00,   1,1.0000
   215,   224,'1 ', 7.00000E-3, 5.20000E-2,   0.10900,  500.00,  600.00,  625.00,  0.00000,  0.00000,  0.00000,  0.00000,1,1,   0.00,   1,1.0000
   216,   217,'1 ', 3.00000E-3, 2.60000E-2,   0.05500,  750.00,  750.00,  750.00,  0.00000,  0.00000,  0.00000,  0.00000,1,1,   0.00,   1,1.0000
   216,   219,'1 ', 3.00000E-3, 2.30000E-2,   0.04900,  750.00,  750.00,  750.00,  0.00000,  0.00000,  0.00000,  0.00000,1,1,   0.00,   1,1.0000
   217,   218,'1 ', 2.00000E-3, 1.40000E-2,   0.03000,  500.00,  600.00,  625.00,  0.00000,  0.00000,  0.00000,  0.00000,1,1,   0.00,   1,1.0000
   217,   222,'1 ', 1.40000E-2, 1.05000E-1,   0.22100,  500.00,  600.00,  625.00,  0.00000,  0.00000,  0.00000,  0.00000,1,1,   0.00,   1,1.0000
   218,   221,'1 ', 3.00000E-3, 2.60000E-2,   0.05500,  500.00,  600.00,  625.00,  0.00000,  0.00000,  0.00000,  0.00000,1,1,   0.00,   1,1.0000
   218,   221,'2 ', 3.00000E-3, 2.60000E-2,   0.05500,  500.00,  600.00,  625.00,  0.00000,  0.00000,  0.00000,  0.00000,1,1,   0.00,   1,1.0000
   219,   220,'1 ', 5.00000E-3, 4.00000E-2,   0.08300,  750.00,  750.00,  750.00,  0.00000,  0.00000,  0.00000,  0.00000,1,1,   0.00,   1,1.0000
   219,   220,'2 ', 5.00000E-3, 4.00000E-2,   0.08300,  500.00,  600.00,  625.00,  0.00000,  0.00000,  0.00000,  0.00000,1,1,   0.00,   1,1.0000
   220,   223,'1 ', 3.00000E-3, 2.20000E-2,   0.04600,  750.00,  750.00,  750.00,  0.00000,  0.00000,  0.00000,  0.00000,1,1,   0.00,   1,1.0000
   220,   223,'2 ', 3.00000E-3, 2.20000E-2,   0.04600,  500.00,  600.00,  625.00,  0.00000,  0.00000,  0.00000,  0.00000,1,1,   0.00,   1,1.0000
   221,   222,'1 ', 9.00000E-3, 6.80000E-2,   0.14200,  500.00,  600.00,  625.00,  0.00000,  0.00000,  0.00000,  0.00000,1,1,   0.00,   1,1.0000
   223,   318,'1 ', 1.33000E-2, 1.03700E-1,   0.21820,  750.00,  750.00,  750.00,  0.00000,  0.00000,  0.00000,  0.00000,1,2,   0.00,   1,1.0000
   301,   302,'1 ', 3.00000E-3, 1.40000E-2,   0.46100,  175.00,  193.00,  200.00,  0.00000,  0.00000,  0.00000,  0.00000,1,1,   0.00,   1,1.0000
   301,   303,'1 ', 5.50000E-2, 2.11000E-1,   0.05700,  175.00,  208.00,  220.00,  0.00000,  0.00000,  0.00000,  0.00000,1,1,   0.00,   1,1.0000
   301,   305,'1 ', 2.20000E-2, 8.50000E-2,   0.02300,  175.00,  208.00,  220.00,  0.00000,  0.00000,  0.00000,  0.00000,1,1,   0.00,   1,1.0000
   302,   304,'1 ', 3.30000E-2, 1.27000E-1,   0.03400,  175.00,  208.00,  220.00,  0.00000,  0.00000,  0.00000,  0.00000,1,1,   0.00,   1,1.0000
   302,   306,'1 ', 5.00000E-2, 1.92000E-1,   0.05200,  175.00,  208.00,  220.00,  0.00000,  0.00000,  0.00000,  0.00000,1,1,   0.00,   1,1.0000
   303,   309,'1 ', 3.18000E-2, 1.19000E-1,   0.03200,  175.00,  208.00,  220.00,  0.00000,  0.00000,  0.00000,  0.00000,1,1,   0.00,   1,1.0000
   304,   309,'1 ', 2.70000E-2, 1.04000E-1,   0.02800,  175.00,  208.00,  220.00,  0.00000,  0.00000,  0.00000,  0.00000,1,1,   0.00,   1,1.0000
   305,   310,'1 ', 2.30000E-2, 8.80000E-2,   0.02400,  175.00,  208.00,  220.00,  0.00000,  0.00000,  0.00000,  0.00000,1,1,   0.00,   1,1.0000
   306,   310,'1 ', 1.40000E-2, 6.10000E-2,   2.45900,  175.00,  193.00,  200.00,  0.00000,  0.00000,  0.00000,  0.00000,1,1,   0.00,   1,1.0000
   307,   308,'1 ', 1.60000E-2, 6.10000E-2,   0.01700,  175.00,  208.00,  220.00,  0.00000,  0.00000,  0.00000,  0.00000,1,1,   0.00,   1,1.0000
   308,   309,'1 ', 4.30000E-2, 1.65000E-1,   0.04500,  175.00,  208.00,  220.00,  0.00000,  0.00000,  0.00000,  0.00000,1,1,   0.00,   1,1.0000
   308,   310,'1 ', 4.30000E-2, 1.65000E-1,   0.04500,  175.00,  208.00,  220.00,  0.00000,  0.00000,  0.00000,  0.00000,1,1,   0.00,   1,1.0000
   311,   313,'1 ', 6.00000E-3, 4.80000E-2,   0.10000,  500.00,  600.00,  625.00,  0.00000,  0.00000,  0.00000,  0.00000,1,1,   0.00,   1,1.0000
   311,   314,'1 ', 5.00000E-3, 4.20000E-2,   0.08800,  500.00,  600.00,  625.00,  0.00000,  0.00000,  0.00000,  0.00000,1,1,   0.00,   1,1.0000
   312,   313,'1 ', 6.00000E-3, 4.80000E-2,   0.10000,  500.00,  600.00,  625.00,  0.00000,  0.00000,  0.00000,  0.00000,1,1,   0.00,   1,1.0000
   312,   323,'1 ', 1.20000E-2, 9.70000E-2,   0.20300,  500.00,  600.00,  625.00,  0.00000,  0.00000,  0.00000,  0.00000,1,1,   0.00,   1,1.0000
   313,   323,'1 ', 1.10000E-2, 8.70000E-2,   0.18200,  500.00,  600.00,  625.00,  0.00000,  0.00000,  0.00000,  0.00000,1,1,   0.00,   1,1.0000
   314,   316,'1 ', 5.00000E-3, 5.90000E-2,   0.08200,  500.00,  600.00,  625.00,  0.00000,  0.00000,  0.00000,  0.00000,1,1,   0.00,   1,1.0000
   315,   316,'1 ', 2.00000E-3, 1.70000E-2,   0.03600,  550.00,  600.00,  625.00,  0.00000,  0.00000,  0.00000,  0.00000,1,1,   0.00,   1,1.0000
   315,   321,'1 ', 6.00000E-3, 4.90000E-2,   0.10300,  500.00,  600.00,  625.00,  0.00000,  0.00000,  0.00000,  0.00000,1,1,   0.00,   1,1.0000
   315,   321,'2 ', 6.00000E-3, 4.90000E-2,   0.10300,  500.00,  600.00,  625.00,  0.00000,  0.00000,  0.00000,  0.00000,1,1,   0.00,   1,1.0000
   315,   324,'1 ', 7.00000E-3, 5.20000E-2,   0.10900,  500.00,  600.00,  625.00,  0.00000,  0.00000,  0.00000,  0.00000,1,1,   0.00,   1,1.0000
   316,   317,'1 ', 3.00000E-3, 2.60000E-2,   0.05500,  500.00,  600.00,  625.00,  0.00000,  0.00000,  0.00000,  0.00000,1,1,   0.00,   1,1.0000
   316,   319,'1 ', 3.00000E-3, 2.30000E-2,   0.04900,  500.00,  600.00,  625.00,  0.00000,  0.00000,  0.00000,  0.00000,1,1,   0.00,   1,1.0000
   317,   318,'1 ', 2.00000E-3, 1.40000E-2,   0.03000,  500.00,  600.00,  625.00,  0.00000,  0.00000,  0.00000,  0.00000,1,1,   0.00,   1,1.0000
   317,   322,'1 ', 1.40000E-2, 1.05000E-1,   0.22100,  500.00,  600.00,  625.00,  0.00000,  0.00000,  0.00000,  0.00000,1,1,   0.00,   1,1.0000
   318,   321,'1 ', 3.00000E-3, 2.60000E-2,   0.05500,  500.00,  600.00,  625.00,  0.00000,  0.00000,  0.00000,  0.00000,1,1,   0.00,   1,1.0000
   318,   321,'2 ', 3.00000E-3, 2.60000E-2,   0.05500,  500.00,  600.00,  625.00,  0.00000,  0.00000,  0.00000,  0.00000,1,1,   0.00,   1,1.0000
   319,   320,'1 ', 5.00000E-3, 4.00000E-2,   0.08300,  500.00,  600.00,  625.00,  0.00000,  0.00000,  0.00000,  0.00000,1,1,   0.00,   1,1.0000
   319,   320,'2 ', 5.00000E-3, 4.00000E-2,   0.08300,  500.00,  600.00,  625.00,  0.00000,  0.00000,  0.00000,  0.00000,1,1,   0.00,   1,1.0000
   320,   323,'1 ', 3.00000E-3, 2.20000E-2,   0.04600,  500.00,  600.00,  625.00,  0.00000,  0.00000,  0.00000,  0.00000,1,1,   0.00,   1,1.0000
   320,   323,'2 ', 3.00000E-3, 2.20000E-2,   0.04600,  500.00,  600.00,  625.00,  0.00000,  0.00000,  0.00000,  0.00000,1,1,   0.00,   1,1.0000
   321,   322,'1 ', 9.00000E-3, 6.80000E-2,   0.14200,  500.00,  600.00,  625.00,  0.00000,  0.00000,  0.00000,  0.00000,1,1,   0.00,   1,1.0000
0 / END OF BRANCH DATA, BEGIN TRANSFORMER DATA
   103,   124,     0,'1 ',1,1,1, 0.00000E+00, 0.00000E+00,2,'            ',1,   1,1.0000,   0,1.0000,   0,1.0000,   0,1.0000,'            '
 2.00000E-3, 8.40000E-2,   100.00
1.01500,   0.000,   0.000,   400.00,   510.00,   600.00, 0,      0, 1.05000, 0.95000, 1.10000, 0.90000,  17, 0, 0.00000, 0.00000,  0.000
1.00000,   0.000
   109,   111,     0,'1 ',1,1,1, 0.00000E+00, 0.00000E+00,2,'            ',1,   1,1.0000,   0,1.0000,   0,1.0000,   0,1.0000,'            '
 2.00000E-3, 8.40000E-2,   100.00
1.03000,   0.000,   0.000,   400.00,   510.00,   600.00, 0,      0, 1.05000, 0.95000, 1.10000, 0.90000,  17, 0, 0.00000, 0.00000,  0.000
1.00000,   0.000
   109,   112,     0,'1 ',1,1,1, 0.00000E+00, 0.00000E+00,2,'            ',1,   1,1.0000,   0,1.0000,   0,1.0000,   0,1.0000,'            '
 2.00000E-3, 8.40000E-2,   100.00
1.03000,   0.000,   0.000,   400.00,   510.00,   600.00, 0,      0, 1.05000, 0.95000, 1.10000, 0.90000,  17, 0, 0.00000, 0.00000,  0.000
1.00000,   0.000
   110,   111,     0,'1 ',1,1,1, 0.00000E+00, 0.00000E+00,2,'            ',1,   1,1.0000,   0,1.0000,   0,1.0000,   0,1.0000,'            '
 2.00000E-3, 8.40000E-2,   100.00
1.01500,   0.000,   0.000,   400.00,   510.00,   600.00, 0,      0, 1.05000, 0.95000, 1.10000, 0.90000,  17, 0, 0.00000, 0.00000,  0.000
1.00000,   0.000
   110,   112,     0,'1 ',1,1,1, 0.00000E+00, 0.00000E+00,2,'            ',1,   1,1.0000,   0,1.0000,   0,1.0000,   0,1.0000,'            '
 2.00000E-3, 8.40000E-2,   100.00
1.01500,   0.000,   0.000,   400.00,   510.00,   600.00, 0,      0, 1.05000, 0.95000, 1.10000, 0.90000,  17, 0, 0.00000, 0.00000,  0.000
1.00000,   0.000
   203,   224,     0,'1 ',1,1,1, 0.00000E+00, 0.00000E+00,2,'            ',1,   1,1.0000,   0,1.0000,   0,1.0000,   0,1.0000,'            '
 2.00000E-3, 8.40000E-2,   100.00
1.01500,   0.000,   0.000,   400.00,   510.00,   600.00, 0,      0, 1.05000, 0.95000, 1.10000, 0.90000,  17, 0, 0.00000, 0.00000,  0.000
1.00000,   0.000
   209,   211,     0,'1 ',1,1,1, 0.00000E+00, 0.00000E+00,2,'            ',1,   1,1.0000,   0,1.0000,   0,1.0000,   0,1.0000,'            '
 2.00000E-3, 8.40000E-2,   100.00
1.03000,   0.000,   0.000,   400.00,   510.00,   600.00, 0,      0, 1.05000, 0.95000, 1.10000, 0.90000,  17, 0, 0.00000, 0.00000,  0.000
1.00000,   0.000
   209,   212,     0,'1 ',1,1,1, 0.00000E+00, 0.00000E+00,2,'            ',1,   1,1.0000,   0,1.0000,   0,1.0000,   0,1.0000,'            '
 2.00000E-3, 8.40000E-2,   100.00
1.03000,   0.000,   0.000,   400.00,   510.00,   600.00, 0,      0, 1.05000, 0.95000, 1.10000, 0.90000,  17, 0, 0.00000, 0.00000,  0.000
1.00000,   0.000
   210,   211,     0,'1 ',1,1,1, 0.00000E+00, 0.00000E+00,2,'            ',1,   1,1.0000,   0,1.0000,   0,1.0000,   0,1.0000,'            '
 2.00000E-3, 8.40000E-2,   100.00
1.01500,   0.000,   0.000,   400.00,   510.00,   600.00, 0,      0, 1.05000, 0.95000, 1.10000, 0.90000,  17, 0, 0.00000, 0.00000,  0.000
1.00000,   0.000
   210,   212,     0,'1 ',1,1,1, 0.00000E+00, 0.00000E+00,2,'            ',1,   1,1.0000,   0,1.0000,   0,1.0000,   0,1.0000,'            '
 2.00000E-3, 8.40000E-2,   100.00
1.01500,   0.000,   0.000,   400.00,   510.00,   600.00, 0,      0, 1.05000, 0.95000, 1.10000, 0.90000,  17, 0, 0.00000, 0.00000,  0.000
1.00000,   0.000
   303,   324,     0,'1 ',1,1,1, 0.00000E+00, 0.00000E+00,2,'            ',1,   1,1.0000,   0,1.0000,   0,1.0000,   0,1.0000,'            '
 2.00000E-3, 8.40000E-2,   100.00
1.01500,   0.000,   0.000,   400.00,   510.00,   600.00, 0,      0, 1.05000, 0.95000, 1.10000, 0.90000,  17, 0, 0.00000, 0.00000,  0.000
1.00000,   0.000
   309,   311,     0,'1 ',1,1,1, 0.00000E+00, 0.00000E+00,2,'            ',1,   1,1.0000,   0,1.0000,   0,1.0000,   0,1.0000,'            '
 2.00000E-3, 8.40000E-2,   100.00
1.03000,   0.000,   0.000,   400.00,   510.00,   600.00, 0,      0, 1.05000, 0.95000, 1.10000, 0.90000,  17, 0, 0.00000, 0.00000,  0.000
1.00000,   0.000
   309,   312,     0,'1 ',1,1,1, 0.00000E+00, 0.00000E+00,2,'            ',1,   1,1.0000,   0,1.0000,   0,1.0000,   0,1.0000,'            '
 2.00000E-3, 8.40000E-2,   100.00
1.03000,   0.000,   0.000,   400.00,   510.00,   600.00, 0,      0, 1.05000, 0.95000, 1.10000, 0.90000,  17, 0, 0.00000, 0.00000,  0.000
1.00000,   0.000
   310,   311,     0,'1 ',1,1,1, 0.00000E+00, 0.00000E+00,2,'            ',1,   1,1.0000,   0,1.0000,   0,1.0000,   0,1.0000,'            '
 2.00000E-3, 8.40000E-2,   100.00
1.01500,   0.000,   0.000,   400.00,   510.00,   600.00, 0,      0, 1.05000, 0.95000, 1.10000, 0.90000,  17, 0, 0.00000, 0.00000,  0.000
1.00000,   0.000
   310,   312,     0,'1 ',1,1,1, 0.00000E+00, 0.00000E+00,2,'            ',1,   1,1.0000,   0,1.0000,   0,1.0000,   0,1.0000,'            '
 2.00000E-3, 8.40000E-2,   100.00
1.01500,   0.000,   0.000,   400.00,   510.00,   600.00, 0,      0, 1.05000, 0.95000, 1.10000, 0.90000,  17, 0, 0.00000, 0.00000,  0.000
1.00000,   0.000
   323,   325,     0,'1 ',1,1,1, 0.00000E+00, 0.00000E+00,2,'            ',1,   1,1.0000,   0,1.0000,   0,1.0000,   0,1.0000,'            '
 0.00000E+0, 9.00000E-3,   100.00
1.00000,   0.000,   1.000,   722.00,   893.00,   893.00, 3,      0,30.00000, 1.00000,900.0000, 0.00000,  30, 0, 0.00000, 0.00000,  0.000
1.00000,   0.000
0 / END OF TRANSFORMER DATA, BEGIN AREA DATA
   1,   113,  -100.000,    10.000,'AREA A      '
   2,   213,    50.000,    10.000,'AREA B      '
   3,   313,    50.000,    10.000,'AREA C      '
0 / END OF AREA DATA, BEGIN TWO-TERMINAL DC DATA
0 / END OF TWO-TERMINAL DC DATA, BEGIN VSC DC LINE DATA
0 / END OF VSC DC LINE DATA, BEGIN IMPEDANCE CORRECTION DATA
0 / END OF IMPEDANCE CORRECTION DATA, BEGIN MULTI-TERMINAL DC DATA
0 / END OF MULTI-TERMINAL DC DATA, BEGIN MULTI-SECTION LINE DATA
0 / END OF MULTI-SECTION LINE DATA, BEGIN ZONE DATA
0 / END OF ZONE DATA, BEGIN INTER-AREA TRANSFER DATA
0 / END OF INTER-AREA TRANSFER DATA, BEGIN OWNER DATA
0 / END OF OWNER DATA, BEGIN FACTS DEVICE DATA
0 / END OF FACTS DEVICE DATA, BEGIN SWITCHED SHUNT DATA
   106,1,0,1,1.05000,1.00000,     0,  100.0,'            ',  -60.00, 5,  -20.00, 5,   20.00
   206,1,0,1,1.05000,1.00000,     0,  100.0,'            ',  -40.00, 5,  -20.00, 5,   20.00
   306,1,0,1,1.05000,1.00000,     0,  100.0,'            ', -100.00, 5,  -20.00, 5,   20.00
0 / END OF SWITCHED SHUNT DATA, BEGIN GNE DATA
0 / END OF GNE DATA, BEGIN INDUCTION MACHINE DATA
0 / END OF INDUCTION MACHINE DATA
Q
